#======================================================================

# CRYSTAL DATA

#----------------------------------------------------------------------

data_VESTA_phase_1


_chemical_name_common                  'c42 h28'
_cell_length_a                         26.789(4)
_cell_length_b                         7.170(1)
_cell_length_c                         14.211(2)
_cell_angle_alpha                      90
_cell_angle_beta                       90
_cell_angle_gamma                      90
_space_group_name_H-M_alt              'C m c e'
_space_group_IT_number                 64

loop_
_space_group_symop_operation_xyz
   'x, y, z'
   '-x, -y, -z'
   '-x, -y+1/2, z+1/2'
   'x, y+1/2, -z+1/2'
   '-x, y+1/2, -z+1/2'
   'x, -y+1/2, z+1/2'
   'x, -y, -z'
   '-x, y, z'
   'x+1/2, y+1/2, z'
   '-x+1/2, -y+1/2, -z'
   '-x+1/2, -y, z+1/2'
   'x+1/2, y, -z+1/2'
   '-x+1/2, y, -z+1/2'
   'x+1/2, -y, z+1/2'
   'x+1/2, -y+1/2, -z'
   '-x+1/2, y+1/2, z'

loop_
   _atom_site_label
   _atom_site_occupancy
   _atom_site_fract_x
   _atom_site_fract_y
   _atom_site_fract_z
   _atom_site_adp_type
   _atom_site_U_iso_or_equiv
   _atom_site_type_symbol
   C1         1.0     0.02737(6)    0.000000      0.000000     Uiso  0.013467 C
   C2         1.0     0.05314(5)   -0.14464(16)   0.04914(8)   Uiso  0.014100 C
   C3         1.0     0.02678(5)   -0.29578(16)   0.08755(8)   Uiso  0.014233 C
   C4         1.0     0.05191(5)   -0.44754(17)   0.13412(9)   Uiso  0.016967 C
   C5         1.0     0.02646(5)   -0.58934(17)   0.17534(9)   Uiso  0.018567 C
   C6         1.0     0.10760(5)   -0.13448(16)   0.07274(8)   Uiso  0.014800 C
   C7         1.0     0.14292(5)   -0.24817(18)   0.02881(9)   Uiso  0.018467 C
   C8         1.0     0.19199(5)   -0.2509(2)     0.05979(10)  Uiso  0.022533 C
   C9         1.0     0.20685(5)   -0.1389(2)     0.13448(10)  Uiso  0.024400 C
   C10        1.0     0.17219(5)   -0.0251(2)     0.17857(10)  Uiso  0.023333 C
   C11        1.0     0.12302(5)   -0.02362(18)   0.14816(9)   Uiso  0.018900 C
   H4         1.0     0.0883(5)    -0.447(2)      0.1357(10)   Uiso  0.016000 H
   H5         1.0     0.0438(5)    -0.689(2)      0.2065(10)   Uiso  0.020000 H
   H7         1.0     0.1328(5)    -0.327(2)     -0.0256(10)   Uiso  0.021000 H
   H8         1.0     0.2167(5)    -0.332(2)      0.0279(11)   Uiso  0.028000 H
   H9         1.0     0.2413(7)    -0.140(2)      0.1546(10)   Uiso  0.025000 H
   H10        1.0     0.1825(7)     0.054(2)      0.2311(13)   Uiso  0.032000 H
   H11        1.0     0.0978(5)     0.054(2)      0.1804(11)   Uiso  0.021000 H

loop_
   _atom_site_aniso_label
   _atom_site_aniso_U_11
   _atom_site_aniso_U_22
   _atom_site_aniso_U_33
   _atom_site_aniso_U_12
   _atom_site_aniso_U_13
   _atom_site_aniso_U_23
   C1	 0.01660  0.01220  0.01160  0.00000  0.00000 -0.00170
   C2	 0.01640  0.01320  0.01270  0.00110  0.00090 -0.00210
   C3	 0.01910  0.01290  0.01070  0.00170  0.00020 -0.00180
   C4	 0.01980  0.01550  0.01560  0.00320  0.00060 -0.00050
   C5	 0.02650  0.01290  0.01630  0.00410 -0.00040  0.00140
   C6	 0.01650  0.01340  0.01450  0.00010 -0.00020  0.00420
   C7	 0.02000  0.01480  0.02060 -0.00030  0.00240  0.00110
   C8	 0.01840  0.02060  0.02860  0.00270  0.00510  0.00440
   C9	 0.01480  0.03020  0.02820 -0.00100 -0.00330  0.00850
   C10	 0.02440  0.02650  0.01910 -0.00330 -0.00510  0.00080
   C11	 0.02140  0.01910  0.01620  0.00160  0.00130  0.00030
   H4	 0.00000  0.00000  0.00000  0.00000  0.00000  0.00000
   H5	 0.00000  0.00000  0.00000  0.00000  0.00000  0.00000
   H7	 0.00000  0.00000  0.00000  0.00000  0.00000  0.00000
   H8	 0.00000  0.00000  0.00000  0.00000  0.00000  0.00000
   H9	 0.00000  0.00000  0.00000  0.00000  0.00000  0.00000
   H10	 0.00000  0.00000  0.00000  0.00000  0.00000  0.00000
   H11	 0.00000  0.00000  0.00000  0.00000  0.00000  0.00000